Circuit: * C:\Users\user\Desktop\spice\12-20UpConverter\12-20UpConverter.asc

Direct Newton iteration for .op point succeeded.
Heightened Def Con from 0.000154 to 0.000154
Heightened Def Con from 0.000176 to 0.000176
Heightened Def Con from 0.000286 to 0.000286
Heightened Def Con from 0.000297 to 0.000297
Heightened Def Con from 0.000297 to 0.000297
Heightened Def Con from 0.000308 to 0.000308
Heightened Def Con from 0.00033 to 0.00033
Heightened Def Con from 0.000341 to 0.000341
Heightened Def Con from 0.000352 to 0.000352
Heightened Def Con from 0.000363 to 0.000363
Heightened Def Con from 0.000374 to 0.000374
Heightened Def Con from 0.000374 to 0.000374
Heightened Def Con from 0.000385 to 0.000385
Heightened Def Con from 0.000385 to 0.000385
Heightened Def Con from 0.000396 to 0.000396
Heightened Def Con from 0.000407 to 0.000407
Heightened Def Con from 0.000407 +++++to 0.000407
Heightened Def Con from 0.000407 to 0.000407
Heightened Def Con from 0.000418 to 0.000418
Heightened Def Con from 0.000418 to 0.000418
Heightened Def Con from 0.000429 to 0.000429
Heightened Def Con from 0.00044 to 0.00044
Heightened Def Con from 0.000451 to 0.000451
Heightened Def Con from 0.000451 to 0.000451
Heightened Def Con from 0.000473 to 0.000473
Heightened Def Con from 0.000484 +++++to 0.000484
Heightened Def Con from 0.000484 to 0.000484
Heightened Def Con from 0.000495 +++++to 0.000495
Heightened Def Con from 0.000495 to 0.000495
Heightened Def Con from 0.000506 to 0.000506
Heightened Def Con from 0.000506 to 0.000506
Heightened Def Con from 0.000517 to 0.000517
Heightened Def Con from 0.000517 to 0.000517
Heightened Def Con from 0.000528 to 0.000528
Heightened Def Con from 0.0005324 to 0.0005324
Heightened Def Con from 0.00055 to 0.00055
Heightened Def Con from 0.000561 to 0.000561
Heightened Def Con from 0.000561 to 0.000561
Heightened Def Con from 0.000572 to 0.000572
Heightened Def Con from 0.000583 to 0.000583
Heightened Def Con from 0.000583 to 0.000583
Heightened Def Con from 0.000594 +++++to 0.000594
Heightened Def Con from 0.000594 to 0.000594
Heightened Def Con from 0.000594 to 0.000594
Heightened Def Con from 0.000594 to 0.000594
Heightened Def Con from 0.000605 to 0.000605
Heightened Def Con from 0.000605 to 0.000605
Heightened Def Con from 0.000605 to 0.000605003
Heightened Def Con from 0.000616 to 0.000616
Heightened Def Con from 0.000627 to 0.000627
Heightened Def Con from 0.000638 +++++to 0.000638
Heightened Def Con from 0.000638 to 0.000638
Heightened Def Con from 0.000638 to 0.000638
Heightened Def Con from 0.000649 to 0.000649
Heightened Def Con from 0.00066 to 0.00066
Heightened Def Con from 0.000671 to 0.000671
Heightened Def Con from 0.000671 to 0.000671
Heightened Def Con from 0.000682 to 0.000682
Heightened Def Con from 0.000693 to 0.000693
Heightened Def Con from 0.000693 to 0.000693
Heightened Def Con from 0.000704 to 0.000704
Heightened Def Con from 0.000715 to 0.000715
Heightened Def Con from 0.000726 to 0.000726
Heightened Def Con from 0.000726 to 0.000726
Heightened Def Con from 0.000726 to 0.000726
Heightened Def Con from 0.000726 to 0.000726
Heightened Def Con from 0.000737 to 0.000737
Heightened Def Con from 0.000759 to 0.000759
Heightened Def Con from 0.00077 to 0.00077
Heightened Def Con from 0.000781 to 0.000781
Heightened Def Con from 0.000781 to 0.000781
Heightened Def Con from 0.000781 to 0.000781
Heightened Def Con from 0.000792 to 0.000792
Heightened Def Con from 0.000803 to 0.000803
Heightened Def Con from 0.000814 to 0.000814
Heightened Def Con from 0.000825 to 0.000825
Heightened Def Con from 0.000825 to 0.000825
Heightened Def Con from 0.000825 to 0.000825
Heightened Def Con from 0.000836 to 0.000836
Heightened Def Con from 0.000836 to 0.000836
Heightened Def Con from 0.000847 to 0.000847
Heightened Def Con from 0.000847 to 0.000847
Heightened Def Con from 0.000858 to 0.000858
Heightened Def Con from 0.000869 to 0.000869
Heightened Def Con from 0.000869 to 0.000869
Heightened Def Con from 0.00088 to 0.00088
Heightened Def Con from 0.000891 to 0.000891
Heightened Def Con from 0.000902 +++++to 0.000902
Heightened Def Con from 0.000902 to 0.000902
Heightened Def Con from 0.000902 to 0.000902
Heightened Def Con from 0.000913 to 0.000913
Heightened Def Con from 0.000924 to 0.000924
Heightened Def Con from 0.000935 +++++to 0.000935
Heightened Def Con from 0.000935 to 0.000935
Heightened Def Con from 0.000946 +++to 0.000946
Heightened Def Con from 0.000946 to 0.000946
Heightened Def Con from 0.000946 to 0.000946
Heightened Def Con from 0.000957 to 0.000957
Heightened Def Con from 0.000968 to 0.000968
Heightened Def Con from 0.000979 to 0.000979
Heightened Def Con from 0.00099 to 0.00099
Heightened Def Con from 0.00099 to 0.00099
Heightened Def Con from 0.001001 to 0.001001
Heightened Def Con from 0.001012 to 0.001012
Heightened Def Con from 0.001023 +++to 0.001023
Heightened Def Con from 0.001023 to 0.001023
Heightened Def Con from 0.001034 to 0.001034
Heightened Def Con from 0.001045 +++to 0.001045
Heightened Def Con from 0.001045 to 0.001045
Heightened Def Con from 0.001056 to 0.001056
Heightened Def Con from 0.001067 to 0.001067
Heightened Def Con from 0.001078 to 0.001078
Heightened Def Con from 0.001089 to 0.001089
Heightened Def Con from 0.0011 to 0.0011
Heightened Def Con from 0.001111 +++to 0.001111
Heightened Def Con from 0.001111 to 0.001111
Heightened Def Con from 0.001122 to 0.001122
Heightened Def Con from 0.001133 to 0.001133
Heightened Def Con from 0.001144 to 0.001144
Heightened Def Con from 0.001155 to 0.001155
Heightened Def Con from 0.001166 to 0.001166
Heightened Def Con from 0.001177 to 0.001177
Heightened Def Con from 0.001177 to 0.001177
Heightened Def Con from 0.001188 to 0.001188
Heightened Def Con from 0.001199 to 0.001199
Heightened Def Con from 0.00121 to 0.00121
Heightened Def Con from 0.001221 to 0.001221
Heightened Def Con from 0.001232 to 0.001232
Heightened Def Con from 0.001243 to 0.001243
Heightened Def Con from 0.001254 to 0.001254
Heightened Def Con from 0.001265 to 0.001265
Heightened Def Con from 0.001265 to 0.001265
Heightened Def Con from 0.001276 to 0.001276
Heightened Def Con from 0.001287 to 0.001287
Heightened Def Con from 0.001287 to 0.001287
Heightened Def Con from 0.001298 to 0.001298
Heightened Def Con from 0.001298 to 0.001298
Heightened Def Con from 0.001309 to 0.001309
Heightened Def Con from 0.00132 to 0.00132
Heightened Def Con from 0.001331 to 0.001331
Heightened Def Con from 0.001342 to 0.001342
Heightened Def Con from 0.001353 to 0.001353
Heightened Def Con from 0.001364 to 0.001364
Heightened Def Con from 0.001375 to 0.001375
Heightened Def Con from 0.001386 to 0.001386
Heightened Def Con from 0.001397 to 0.001397
Heightened Def Con from 0.001408 to 0.001408
Heightened Def Con from 0.001419 to 0.001419
Heightened Def Con from 0.00143 to 0.00143
Heightened Def Con from 0.00143 to 0.00143
Heightened Def Con from 0.001441 to 0.001441
Heightened Def Con from 0.001452 to 0.001452
Heightened Def Con from 0.001452 to 0.001452
Heightened Def Con from 0.001452 to 0.001452
Heightened Def Con from 0.001463 to 0.001463
Heightened Def Con from 0.001463 to 0.001463
Heightened Def Con from 0.001474 to 0.001474
Heightened Def Con from 0.001485 to 0.001485
Heightened Def Con from 0.001496 to 0.001496
Heightened Def Con from 0.001507 to 0.001507
Heightened Def Con from 0.001518 to 0.001518
Heightened Def Con from 0.001518 to 0.001518
Heightened Def Con from 0.001529 to 0.001529
Heightened Def Con from 0.00154 to 0.00154
Heightened Def Con from 0.00154 to 0.00154
Heightened Def Con from 0.001551 to 0.001551
Heightened Def Con from 0.001551 to 0.001551
Heightened Def Con from 0.001562 to 0.001562
Heightened Def Con from 0.001573 to 0.001573
Heightened Def Con from 0.001584 to 0.001584
Heightened Def Con from 0.001595 to 0.001595
Heightened Def Con from 0.001606 to 0.001606
Heightened Def Con from 0.001606 to 0.001606
Heightened Def Con from 0.001617 to 0.001617
Heightened Def Con from 0.001628 to 0.001628
Heightened Def Con from 0.001639 to 0.001639
Heightened Def Con from 0.001639 to 0.001639
Heightened Def Con from 0.00165 to 0.00165
Heightened Def Con from 0.00165 to 0.00165
Heightened Def Con from 0.001661 to 0.001661
Heightened Def Con from 0.001661 +++++to 0.001661
Heightened Def Con from 0.001661 to 0.001661
Heightened Def Con from 0.001672 to 0.001672
Heightened Def Con from 0.001683 to 0.001683
Heightened Def Con from 0.001694 to 0.001694
Heightened Def Con from 0.001705 to 0.001705
Heightened Def Con from 0.001716 to 0.001716
Heightened Def Con from 0.001727 to 0.001727
Heightened Def Con from 0.001738 to 0.001738
Heightened Def Con from 0.001749 to 0.001749
Heightened Def Con from 0.00176 to 0.00176
Heightened Def Con from 0.00176 to 0.00176
Heightened Def Con from 0.00176 to 0.00176
Heightened Def Con from 0.001771 to 0.001771
Heightened Def Con from 0.001782 to 0.001782
Heightened Def Con from 0.001793 to 0.001793
Heightened Def Con from 0.001804 to 0.001804
Heightened Def Con from 0.001815 to 0.001815
Heightened Def Con from 0.001826 to 0.001826
Heightened Def Con from 0.0018304 to 0.0018304
Heightened Def Con from 0.001837 to 0.001837
Heightened Def Con from 0.001848 to 0.001848
Heightened Def Con from 0.001859 to 0.001859
Heightened Def Con from 0.00187 to 0.00187
Heightened Def Con from 0.001881 to 0.001881
Heightened Def Con from 0.001892 to 0.001892
Heightened Def Con from 0.001903 to 0.001903
Heightened Def Con from 0.001914 to 0.001914
Heightened Def Con from 0.001925 to 0.001925
Heightened Def Con from 0.001936 to 0.001936
Heightened Def Con from 0.001947 to 0.001947
Heightened Def Con from 0.001958 to 0.001958
Heightened Def Con from 0.001958 to 0.001958
Heightened Def Con from 0.001969 to 0.001969
Heightened Def Con from 0.00198 to 0.00198
Heightened Def Con from 0.00198 to 0.00198
Heightened Def Con from 0.001991 to 0.001991
Heightened Def Con from 0.002024 to 0.002024
Heightened Def Con from 0.002024 to 0.002024
Heightened Def Con from 0.002024 to 0.002024
Heightened Def Con from 0.002035 to 0.002035
Heightened Def Con from 0.002046 to 0.002046
Heightened Def Con from 0.002057 to 0.002057
Heightened Def Con from 0.002057 to 0.002057
Heightened Def Con from 0.002068 to 0.002068
Heightened Def Con from 0.002079 to 0.002079
Heightened Def Con from 0.00209 to 0.00209
Heightened Def Con from 0.00209 to 0.00209
Heightened Def Con from 0.002101 to 0.002101
Heightened Def Con from 0.002123 to 0.002123
Heightened Def Con from 0.002134 to 0.002134
Heightened Def Con from 0.002134 to 0.002134
Heightened Def Con from 0.002134 to 0.002134
Heightened Def Con from 0.002156 to 0.002156
Heightened Def Con from 0.002167 to 0.002167
Heightened Def Con from 0.002167 to 0.002167
Heightened Def Con from 0.002189 to 0.002189
Heightened Def Con from 0.002189 to 0.002189
Heightened Def Con from 0.0022 to 0.0022
Heightened Def Con from 0.0022 to 0.0022
Heightened Def Con from 0.002222 to 0.002222
Heightened Def Con from 0.002233 to 0.002233
Heightened Def Con from 0.002233 to 0.002233
Heightened Def Con from 0.002255 to 0.002255
Heightened Def Con from 0.002266 to 0.002266
Heightened Def Con from 0.002277 to 0.002277
Heightened Def Con from 0.002288 to 0.002288
Heightened Def Con from 0.002299 to 0.002299
Heightened Def Con from 0.002299 to 0.002299
Heightened Def Con from 0.00231 to 0.00231
Heightened Def Con from 0.00231 to 0.00231
Heightened Def Con from 0.002321 to 0.002321
Heightened Def Con from 0.002365 to 0.002365
Heightened Def Con from 0.002387 to 0.002387
Heightened Def Con from 0.002387 to 0.002387
Heightened Def Con from 0.002398 to 0.002398
Heightened Def Con from 0.002398 to 0.002398
Heightened Def Con from 0.002409 to 0.002409
Heightened Def Con from 0.00242 to 0.00242
Heightened Def Con from 0.00242 to 0.00242
Heightened Def Con from 0.002431 to 0.002431
Heightened Def Con from 0.002442 to 0.002442
Heightened Def Con from 0.002475 to 0.002475
Heightened Def Con from 0.002497 to 0.002497
Heightened Def Con from 0.002508 to 0.002508
Heightened Def Con from 0.002508 to 0.002508
Heightened Def Con from 0.002519 to 0.002519
Heightened Def Con from 0.00253 to 0.00253
Heightened Def Con from 0.002563 to 0.002563
Heightened Def Con from 0.002607 to 0.002607
Heightened Def Con from 0.002651 to 0.002651
Heightened Def Con from 0.002662 to 0.002662
Heightened Def Con from 0.002684 to 0.002684
Heightened Def Con from 0.002684 to 0.002684
Heightened Def Con from 0.002684 to 0.002684
Heightened Def Con from 0.002706 to 0.002706
Heightened Def Con from 0.002706 to 0.002706
Heightened Def Con from 0.002717 to 0.002717
Heightened Def Con from 0.002761 to 0.002761
Heightened Def Con from 0.002772 to 0.002772
Heightened Def Con from 0.002783 to 0.002783
Heightened Def Con from 0.002783 to 0.002783
Heightened Def Con from 0.002805 +++++to 0.002805
Heightened Def Con from 0.002805 to 0.002805
Heightened Def Con from 0.002882 to 0.002882
Heightened Def Con from 0.002915 to 0.002915
Heightened Def Con from 0.002937 to 0.002937
Heightened Def Con from 0.002937 to 0.002937
Heightened Def Con from 0.002981 to 0.002981
Heightened Def Con from 0.003014 to 0.003014
Heightened Def Con from 0.003036 to 0.003036
Heightened Def Con from 0.003058 to 0.003058
Heightened Def Con from 0.00308 to 0.00308
Heightened Def Con from 0.003113 to 0.003113
Heightened Def Con from 0.003157 to 0.003157
Heightened Def Con from 0.003168 to 0.003168
Heightened Def Con from 0.003212 to 0.003212
Heightened Def Con from 0.0033 to 0.0033
Heightened Def Con from 0.003322 to 0.003322
Heightened Def Con from 0.003344 to 0.003344
Heightened Def Con from 0.003344 to 0.003344
Heightened Def Con from 0.0033704 to 0.0033704
Heightened Def Con from 0.003399 to 0.003399
Heightened Def Con from 0.003421 to 0.003421
Heightened Def Con from 0.003421 +++++to 0.003421
Heightened Def Con from 0.003421 to 0.003421
Heightened Def Con from 0.003432 to 0.003432
Heightened Def Con from 0.003454 to 0.003454
Heightened Def Con from 0.003454 to 0.003454
Heightened Def Con from 0.003465 to 0.003465
Heightened Def Con from 0.003465 to 0.003465
Heightened Def Con from 0.003487 to 0.003487
Heightened Def Con from 0.003487 to 0.003487
Heightened Def Con from 0.003487 to 0.003487
Heightened Def Con from 0.003487 to 0.003487
Heightened Def Con from 0.003564 to 0.003564
Heightened Def Con from 0.003619 to 0.003619
Heightened Def Con from 0.003641 to 0.003641
Heightened Def Con from 0.003652 to 0.003652
Heightened Def Con from 0.003652 to 0.003652
Heightened Def Con from 0.003652 to 0.003652
Heightened Def Con from 0.003663 to 0.003663
Heightened Def Con from 0.003663 to 0.003663
Heightened Def Con from 0.003707 to 0.003707
Heightened Def Con from 0.003718 to 0.003718
Heightened Def Con from 0.00374 to 0.00374
Heightened Def Con from 0.00374 to 0.00374
Heightened Def Con from 0.003773 to 0.003773
Heightened Def Con from 0.003806 to 0.003806
Heightened Def Con from 0.003806 to 0.003806
Heightened Def Con from 0.003817 to 0.003817
Heightened Def Con from 0.003817 to 0.003817
Heightened Def Con from 0.003839 to 0.003839
Heightened Def Con from 0.003839 to 0.003839
Heightened Def Con from 0.00385 to 0.00385
Heightened Def Con from 0.003883 to 0.003883
Heightened Def Con from 0.003894 to 0.003894
Heightened Def Con from 0.003938 to 0.003938
Heightened Def Con from 0.003949 to 0.003949
Heightened Def Con from 0.00396 to 0.00396
Heightened Def Con from 0.003971 to 0.003971
Heightened Def Con from 0.003982 to 0.003982
Heightened Def Con from 0.004037 to 0.004037
Heightened Def Con from 0.004048 to 0.004048
Heightened Def Con from 0.00407 to 0.00407
Heightened Def Con from 0.004092 to 0.004092
Heightened Def Con from 0.004125 to 0.004125
Heightened Def Con from 0.004191 to 0.004191
Heightened Def Con from 0.004213 to 0.004213
Heightened Def Con from 0.004235 to 0.004235
Heightened Def Con from 0.004235 to 0.004235
Heightened Def Con from 0.00429 to 0.00429
Heightened Def Con from 0.004323 to 0.004323
Heightened Def Con from 0.004356 to 0.004356
Heightened Def Con from 0.004378 to 0.004378
Heightened Def Con from 0.004389 to 0.004389
Heightened Def Con from 0.0044 to 0.0044
Heightened Def Con from 0.004422 to 0.004422
Heightened Def Con from 0.004433 to 0.004433
Heightened Def Con from 0.004444 to 0.004444
Heightened Def Con from 0.004455 to 0.004455
Heightened Def Con from 0.004466 to 0.004466
Heightened Def Con from 0.004466 to 0.004466
Heightened Def Con from 0.004521 to 0.004521
Heightened Def Con from 0.004521 to 0.004521
Heightened Def Con from 0.004532 to 0.004532
Heightened Def Con from 0.004543 ++++to 0.004543
Heightened Def Con from 0.004543 to 0.004543
Heightened Def Con from 0.004554 to 0.004554
Heightened Def Con from 0.004554 to 0.004554
Heightened Def Con from 0.004565 to 0.004565
Heightened Def Con from 0.004576 to 0.004576
Heightened Def Con from 0.004576 to 0.004576
Heightened Def Con from 0.004587 to 0.004587
Heightened Def Con from 0.004598 to 0.004598
Heightened Def Con from 0.004609 to 0.004609
Heightened Def Con from 0.00462 to 0.00462
Heightened Def Con from 0.00462 to 0.00462
Heightened Def Con from 0.004631 to 0.004631
Heightened Def Con from 0.004631 to 0.004631
Heightened Def Con from 0.004642 ++++to 0.004642
Heightened Def Con from 0.004642 to 0.004642
Heightened Def Con from 0.004653 to 0.004653
Heightened Def Con from 0.004664 to 0.004664
Heightened Def Con from 0.004675 to 0.004675
Heightened Def Con from 0.004697 to 0.004697
Heightened Def Con from 0.004719 to 0.004719
Heightened Def Con from 0.004763 to 0.004763
Heightened Def Con from 0.004774 ++++to 0.004774
Heightened Def Con from 0.004774 to 0.004774
Heightened Def Con from 0.004807 to 0.004807
Heightened Def Con from 0.004829 to 0.004829
Heightened Def Con from 0.00484 to 0.00484
Heightened Def Con from 0.004862 to 0.004862
Heightened Def Con from 0.004884 to 0.004884
Heightened Def Con from 0.004895 to 0.004895
Heightened Def Con from 0.004906 ++++++to 0.004906
Heightened Def Con from 0.004906 to 0.004906
Heightened Def Con from 0.004917 to 0.004917
Heightened Def Con from 0.004928 to 0.004928
Heightened Def Con from 0.00506 to 0.00506
Heightened Def Con from 0.005071 to 0.005071
Heightened Def Con from 0.005082 to 0.005082
Heightened Def Con from 0.005082 +++++to 0.005082
Heightened Def Con from 0.005082 to 0.005082
Heightened Def Con from 0.005104 to 0.005104
Heightened Def Con from 0.005126 to 0.005126
Heightened Def Con from 0.005148 to 0.005148
Heightened Def Con from 0.00517 to 0.00517
Heightened Def Con from 0.005181 to 0.005181
Heightened Def Con from 0.005181 to 0.005181
Heightened Def Con from 0.005192 to 0.005192
Heightened Def Con from 0.005225 to 0.005225
Heightened Def Con from 0.005258 to 0.005258
Heightened Def Con from 0.005291 to 0.005291
Heightened Def Con from 0.005324 ++++to 0.005324
Heightened Def Con from 0.005324 to 0.005324
Heightened Def Con from 0.005335 to 0.005335
Heightened Def Con from 0.005357 to 0.005357
Heightened Def Con from 0.00539 to 0.00539
Heightened Def Con from 0.005401 to 0.005401
Heightened Def Con from 0.005401 to 0.005401
Heightened Def Con from 0.005423 to 0.005423
Heightened Def Con from 0.005434 to 0.005434
Heightened Def Con from 0.005445 to 0.005445
Heightened Def Con from 0.005456 +++++to 0.005456
Heightened Def Con from 0.005456 to 0.005456
Heightened Def Con from 0.005467 to 0.005467
Heightened Def Con from 0.005478 to 0.005478
Heightened Def Con from 0.005478 to 0.005478
Heightened Def Con from 0.005489 to 0.005489
Heightened Def Con from 0.0055 to 0.0055
Heightened Def Con from 0.005522 to 0.005522
Heightened Def Con from 0.005533 to 0.005533
Heightened Def Con from 0.005544 to 0.005544
Heightened Def Con from 0.005555 to 0.005555
Heightened Def Con from 0.005566 to 0.005566
Heightened Def Con from 0.005643 to 0.005643
Heightened Def Con from 0.005654 to 0.005654
Heightened Def Con from 0.005775 to 0.005775
Heightened Def Con from 0.005786 to 0.005786
Heightened Def Con from 0.005797 to 0.005797
Heightened Def Con from 0.005819 to 0.005819
Heightened Def Con from 0.005852 to 0.005852
Heightened Def Con from 0.005863 to 0.005863
Heightened Def Con from 0.005863 to 0.005863
Heightened Def Con from 0.005874 to 0.005874
Heightened Def Con from 0.005896 to 0.005896
Heightened Def Con from 0.005907 to 0.005907
Heightened Def Con from 0.00594 ++++to 0.00594
Heightened Def Con from 0.00594 to 0.00594
Heightened Def Con from 0.005962 to 0.005962
Heightened Def Con from 0.005984 to 0.005984
Heightened Def Con from 0.006006 +to 0.006006
Heightened Def Con from 0.006039 to 0.006039
Heightened Def Con from 0.006039 to 0.006039
Heightened Def Con from 0.00605 to 0.00605
Heightened Def Con from 0.006105 ++++to 0.006105
Heightened Def Con from 0.006105 to 0.006105
Heightened Def Con from 0.006116 to 0.006116
Heightened Def Con from 0.006127 to 0.006127
Heightened Def Con from 0.006127 to 0.006127
Heightened Def Con from 0.006138 to 0.006138
Heightened Def Con from 0.006149 to 0.006149
Heightened Def Con from 0.00616 to 0.00616
Heightened Def Con from 0.006171 to 0.006171
Heightened Def Con from 0.006182 to 0.006182
Heightened Def Con from 0.006182 to 0.006182
Heightened Def Con from 0.006193 to 0.006193
Heightened Def Con from 0.006292 to 0.006292
Heightened Def Con from 0.006292 to 0.006292
Heightened Def Con from 0.006314 to 0.006314
Heightened Def Con from 0.006424 to 0.006424
Heightened Def Con from 0.006446 to 0.006446
Heightened Def Con from 0.006479 to 0.006479
Heightened Def Con from 0.006512 to 0.006512
Heightened Def Con from 0.0066 to 0.0066
Heightened Def Con from 0.006677 to 0.006677
Heightened Def Con from 0.006688 to 0.006688
Heightened Def Con from 0.006699 to 0.006699
Heightened Def Con from 0.006721 +++++to 0.006721
Heightened Def Con from 0.006721 to 0.006721
Heightened Def Con from 0.006732 to 0.006732
Heightened Def Con from 0.006754 to 0.006754
Heightened Def Con from 0.006765 ++++to 0.006765
Heightened Def Con from 0.006765 to 0.006765
Heightened Def Con from 0.006798 to 0.006798
Heightened Def Con from 0.006809 to 0.006809
Heightened Def Con from 0.006809 to 0.006809
Heightened Def Con from 0.00682 to 0.00682
Heightened Def Con from 0.006842 to 0.006842
Heightened Def Con from 0.006842 to 0.006842
Heightened Def Con from 0.006853 to 0.006853
Heightened Def Con from 0.006886 to 0.006886
Heightened Def Con from 0.006897 to 0.006897
Heightened Def Con from 0.006908 to 0.006908
Heightened Def Con from 0.006985 to 0.006985
Heightened Def Con from 0.006996 to 0.006996
Heightened Def Con from 0.007007 to 0.007007
Heightened Def Con from 0.007018 to 0.007018
Heightened Def Con from 0.007029 to 0.007029
Heightened Def Con from 0.00704 to 0.00704
Heightened Def Con from 0.007073 to 0.007073
Heightened Def Con from 0.007084 to 0.007084
Heightened Def Con from 0.007117 to 0.007117
Heightened Def Con from 0.007128 to 0.007128
Heightened Def Con from 0.007172 ++++to 0.007172
Heightened Def Con from 0.007172 to 0.007172
Heightened Def Con from 0.007194 to 0.007194
Heightened Def Con from 0.007205 to 0.007205
Heightened Def Con from 0.007238 to 0.007238
Heightened Def Con from 0.007238 to 0.007238
Heightened Def Con from 0.007249 to 0.007249
Heightened Def Con from 0.00726 to 0.00726
Heightened Def Con from 0.007282 to 0.007282
Heightened Def Con from 0.007293 to 0.007293
Heightened Def Con from 0.007304 to 0.007304
Heightened Def Con from 0.007315 to 0.007315
Heightened Def Con from 0.007326 to 0.007326
Heightened Def Con from 0.007348 to 0.007348
Heightened Def Con from 0.007359 to 0.007359
Heightened Def Con from 0.00737 ++++to 0.00737
Heightened Def Con from 0.00737 ++++to 0.00737
Heightened Def Con from 0.00737 to 0.00737
Heightened Def Con from 0.00737 to 0.00737
Heightened Def Con from 0.007381 to 0.007381
Heightened Def Con from 0.007392 to 0.007392
Heightened Def Con from 0.007403 to 0.007403
Heightened Def Con from 0.007458 to 0.007458
Heightened Def Con from 0.00748 to 0.00748
Heightened Def Con from 0.00748 to 0.00748
Heightened Def Con from 0.00748 to 0.00748
Heightened Def Con from 0.00748 to 0.00748
Heightened Def Con from 0.007491 to 0.007491
Heightened Def Con from 0.007513 to 0.007513
Heightened Def Con from 0.007535 to 0.007535
Heightened Def Con from 0.007546 to 0.007546
Heightened Def Con from 0.007557 to 0.007557
Heightened Def Con from 0.007568 to 0.007568
Heightened Def Con from 0.007579 to 0.007579
Heightened Def Con from 0.007601 to 0.007601
Heightened Def Con from 0.007612 to 0.007612
Heightened Def Con from 0.007623 to 0.007623
Heightened Def Con from 0.007656 to 0.007656
Heightened Def Con from 0.007689 to 0.007689
Heightened Def Con from 0.007689 to 0.007689
Heightened Def Con from 0.0077 to 0.0077
Heightened Def Con from 0.007711 to 0.007711
Heightened Def Con from 0.007733 to 0.007733
Heightened Def Con from 0.007733 to 0.007733
Heightened Def Con from 0.007755 to 0.007755
Heightened Def Con from 0.007766 to 0.007766
Heightened Def Con from 0.007799 to 0.007799
Heightened Def Con from 0.007799 to 0.007799
Heightened Def Con from 0.00781 to 0.00781
Heightened Def Con from 0.007821 to 0.007821
Heightened Def Con from 0.007843 to 0.007843
Heightened Def Con from 0.007854 to 0.007854
Heightened Def Con from 0.007887 to 0.007887
Heightened Def Con from 0.007898 to 0.007898
Heightened Def Con from 0.007909 to 0.007909
Heightened Def Con from 0.007909 +++++++to 0.007909
Heightened Def Con from 0.007909 to 0.007909
Heightened Def Con from 0.007931 to 0.007931
Heightened Def Con from 0.007953 to 0.007953
Heightened Def Con from 0.007975 to 0.007975
Heightened Def Con from 0.007975 to 0.007975
Heightened Def Con from 0.007986 to 0.007986
Heightened Def Con from 0.007986 to 0.007986
Heightened Def Con from 0.007997 to 0.007997
Heightened Def Con from 0.008019 +++++to 0.008019
Heightened Def Con from 0.008019 to 0.008019
Heightened Def Con from 0.008019 to 0.008019
Heightened Def Con from 0.00803 to 0.00803
Heightened Def Con from 0.008041 to 0.008041
Heightened Def Con from 0.008041 to 0.008041
Heightened Def Con from 0.008107 to 0.008107
Heightened Def Con from 0.008107 to 0.008107
Heightened Def Con from 0.00814 to 0.00814
Heightened Def Con from 0.008239 +++to 0.008239
Heightened Def Con from 0.008239 to 0.008239
Heightened Def Con from 0.008316 to 0.008316
Heightened Def Con from 0.008426 to 0.008426
Heightened Def Con from 0.008426 to 0.008426
Heightened Def Con from 0.008602 to 0.008602
Heightened Def Con from 0.008613 to 0.008613
Heightened Def Con from 0.008624 to 0.008624
Heightened Def Con from 0.008657 to 0.008657
Heightened Def Con from 0.008657 to 0.008657
Heightened Def Con from 0.008668 to 0.008668
Heightened Def Con from 0.008668 to 0.008668
Heightened Def Con from 0.008679 to 0.008679
Heightened Def Con from 0.00869 to 0.00869
Heightened Def Con from 0.00869 to 0.00869
Heightened Def Con from 0.008701 to 0.008701
Heightened Def Con from 0.008701 to 0.008701
Heightened Def Con from 0.008712 to 0.008712
Heightened Def Con from 0.008723 to 0.008723
Heightened Def Con from 0.008734 to 0.008734
Heightened Def Con from 0.008745 +++to 0.008745
Heightened Def Con from 0.008745 to 0.008745
Heightened Def Con from 0.008745 to 0.008745
Heightened Def Con from 0.008756 to 0.008756
Heightened Def Con from 0.008756 to 0.008756
Heightened Def Con from 0.008767 to 0.008767
Heightened Def Con from 0.008778 to 0.008778
Heightened Def Con from 0.008833 to 0.008833
Heightened Def Con from 0.008833 to 0.008833
Heightened Def Con from 0.008888 to 0.008888
Heightened Def Con from 0.008899 to 0.008899
Heightened Def Con from 0.008899 to 0.008899
Heightened Def Con from 0.00891 to 0.00891
Heightened Def Con from 0.008932 +++++to 0.008932
Heightened Def Con from 0.008932 to 0.008932
Heightened Def Con from 0.008943 to 0.008943
Heightened Def Con from 0.008954 to 0.008954
Heightened Def Con from 0.008954 to 0.008954
Heightened Def Con from 0.008954 to 0.008954
Heightened Def Con from 0.008976 to 0.008976
Heightened Def Con from 0.008976 to 0.008976
Heightened Def Con from 0.008976 to 0.008976
Heightened Def Con from 0.009009 to 0.009009
Heightened Def Con from 0.00902 to 0.00902
Heightened Def Con from 0.009031 to 0.009031
Heightened Def Con from 0.009086 +++++to 0.009086
Heightened Def Con from 0.009086 to 0.009086
Heightened Def Con from 0.009086 to 0.009086
Heightened Def Con from 0.009097 to 0.009097
Heightened Def Con from 0.009119 to 0.009119
Heightened Def Con from 0.00913 to 0.00913
Heightened Def Con from 0.009141 to 0.009141
Heightened Def Con from 0.009141 to 0.009141
Heightened Def Con from 0.009152 to 0.009152
Heightened Def Con from 0.009163 to 0.009163
Heightened Def Con from 0.009196 to 0.009196
Heightened Def Con from 0.009196 to 0.009196
Heightened Def Con from 0.00924 to 0.00924
Heightened Def Con from 0.009262 to 0.009262
Heightened Def Con from 0.009317 to 0.009317
Heightened Def Con from 0.009317 to 0.009317
Heightened Def Con from 0.009328 to 0.009328
Heightened Def Con from 0.009328 to 0.009328
Heightened Def Con from 0.00935 to 0.00935
Heightened Def Con from 0.009361 to 0.009361
Heightened Def Con from 0.009361 to 0.009361
Heightened Def Con from 0.009383 to 0.009383
Heightened Def Con from 0.009405 to 0.009405
Heightened Def Con from 0.009438 to 0.009438
Heightened Def Con from 0.009471 to 0.009471
Heightened Def Con from 0.009493 to 0.009493
Heightened Def Con from 0.009515 to 0.009515
Heightened Def Con from 0.009526 to 0.009526
Heightened Def Con from 0.009537 to 0.009537
Heightened Def Con from 0.009537 to 0.009537
Heightened Def Con from 0.009537 to 0.009537
Heightened Def Con from 0.009614 to 0.009614
Heightened Def Con from 0.009636 to 0.009636
Heightened Def Con from 0.009647 to 0.009647
Heightened Def Con from 0.009647 to 0.009647
Heightened Def Con from 0.009702 to 0.009702
Heightened Def Con from 0.009735 to 0.009735
Heightened Def Con from 0.009746 to 0.009746
Heightened Def Con from 0.009757 to 0.009757
Heightened Def Con from 0.009768 to 0.009768
Heightened Def Con from 0.009768 to 0.009768
Heightened Def Con from 0.009779 to 0.009779
Heightened Def Con from 0.00979 to 0.00979
Heightened Def Con from 0.009801 to 0.009801
Heightened Def Con from 0.009812 to 0.009812
Heightened Def Con from 0.009823 to 0.009823
Heightened Def Con from 0.009823 to 0.009823
Heightened Def Con from 0.009823 to 0.009823
Heightened Def Con from 0.009834 to 0.009834
Heightened Def Con from 0.009845 ++++to 0.009845
Heightened Def Con from 0.009845 to 0.009845
Heightened Def Con from 0.009867 to 0.009867
Heightened Def Con from 0.009878 to 0.009878
Heightened Def Con from 0.009889 to 0.009889
Heightened Def Con from 0.009889 to 0.009889
Heightened Def Con from 0.0099 to 0.0099
Heightened Def Con from 0.009911 to 0.009911
Heightened Def Con from 0.009922 to 0.009922
Heightened Def Con from 0.009933 to 0.009933
Heightened Def Con from 0.009944 to 0.009944
Heightened Def Con from 0.009955 to 0.009955
Heightened Def Con from 0.009966 to 0.009966
Heightened Def Con from 0.009966 to 0.009966
Heightened Def Con from 0.009988 to 0.009988
Heightened Def Con from 0.009999 to 0.009999

Date: Tue Oct 01 03:12:38 2019
Total elapsed time: 5.158 seconds.

tnom = 27
temp = 27
method = modified trap
totiter = 1272019
traniter = 1272013
tranpoints = 362134
accept = 276207
rejected = 86772
matrix size = 5
fillins = 0
solver = Alternate
Matrix Compiler1:       9 opcodes  0.1/[0.1]/0.1
Matrix Compiler2: 363 bytes object code size  0.1/0.1/[0.1]

